<?xml version="1.0" encoding="UTF-8"?>

<!-- generated on Thứ tư, 24 Tháng 4 Năm 2024 15:01:46 +07 by Eclipse SUMO netedit Version 1.8.0
<configuration xmlns:xsi="http://www.w3.org/2001/XMLSchema-instance" xsi:noNamespaceSchemaLocation="http://sumo.dlr.de/xsd/netconvertConfiguration.xsd">

    <input>
        <sumo-net-file value="/home/hieudp/Documents/map1/map1.net.xml"/>
    </input>

    <output>
        <output-file value="/home/hieudp/Documents/map1/map1.net.xml"/>
    </output>

    <processing>
        <geometry.min-radius.fix.railways value="false"/>
        <geometry.max-grade.fix value="false"/>
        <offset.disable-normalization value="true"/>
        <lefthand value="false"/>
    </processing>

    <junctions>
        <no-internal-links value="false"/>
        <no-turnarounds value="true"/>
        <junctions.corner-detail value="5"/>
        <junctions.limit-turn-speed value="5.5"/>
        <rectangular-lane-cut value="false"/>
    </junctions>

    <pedestrian>
        <walkingareas value="false"/>
    </pedestrian>

    <report>
        <aggregate-warnings value="5"/>
    </report>

</configuration>
-->
<!-- Kich thuoc cua map chieu dai la 6km, chieu rong la 2km -->
<net version="1.6" junctionCornerDetail="5" limitTurnSpeed="5.50" xmlns:xsi="http://www.w3.org/2001/XMLSchema-instance" xsi:noNamespaceSchemaLocation="http://sumo.dlr.de/xsd/net_file.xsd">

    <location netOffset="0.00,0.00" convBoundary="-3500.00,-1600.00,3700.00,200.00" origBoundary="-10000000000.00,-10000000000.00,10000000000.00,10000000000.00" projParameter="!"/>

    <edge id=":J0_0" function="internal">
        <lane id=":J0_0_0" index="0" disallow="pedestrian" speed="13.89" length="0.10" shape="-100.00,201.60 -100.00,201.60"/>
    </edge>
    <edge id=":J0_1" function="internal">
        <lane id=":J0_1_0" index="0" disallow="pedestrian" speed="13.89" length="0.10" shape="-100.00,198.40 -100.00,198.40"/>
    </edge>
    <edge id=":J0_c0" function="crossing" crossingEdges="E0 E1">
        <lane id=":J0_c0_0" index="0" allow="pedestrian" speed="1.00" length="6.40" width="4.00" shape="-102.00,196.80 -102.00,203.20"/>
    </edge>
    <edge id=":J0_c1" function="crossing" crossingEdges="E24 E25">
        <lane id=":J0_c1_0" index="0" allow="pedestrian" speed="1.00" length="6.40" width="4.00" shape="-98.00,203.20 -98.00,196.80"/>
    </edge>
    <edge id=":J0_w0" function="walkingarea">
        <lane id=":J0_w0_0" index="0" allow="pedestrian" speed="1.00" length="2.59" width="4.00" shape="-96.00,203.20 -100.00,203.20 -100.00,205.20 -100.00,205.20 -100.00,203.20 -104.00,203.20"/>
    </edge>
    <edge id=":J0_w1" function="walkingarea">
        <lane id=":J0_w1_0" index="0" allow="pedestrian" speed="1.00" length="2.59" width="4.00" shape="-104.00,196.80 -100.00,196.80 -100.00,194.80 -100.00,194.80 -100.00,196.80 -96.00,196.80"/>
    </edge>
    <edge id=":J1_0" function="internal">
        <lane id=":J1_0_0" index="0" disallow="pedestrian" speed="13.89" length="0.10" shape="0.00,201.60 0.00,201.60"/>
    </edge>
    <edge id=":J1_1" function="internal">
        <lane id=":J1_1_0" index="0" disallow="pedestrian" speed="13.89" length="0.10" shape="0.00,198.40 0.00,198.40"/>
    </edge>
    <edge id=":J1_c0" function="crossing" crossingEdges="E2 E3">
        <lane id=":J1_c0_0" index="0" allow="pedestrian" speed="1.00" length="6.40" width="4.00" shape="-2.00,196.80 -2.00,203.20"/>
    </edge>
    <edge id=":J1_c1" function="crossing" crossingEdges="E1 E0">
        <lane id=":J1_c1_0" index="0" allow="pedestrian" speed="1.00" length="6.40" width="4.00" shape="2.00,203.20 2.00,196.80"/>
    </edge>
    <edge id=":J1_w0" function="walkingarea">
        <lane id=":J1_w0_0" index="0" allow="pedestrian" speed="1.00" length="2.59" width="4.00" shape="4.00,203.20 0.00,203.20 0.00,205.20 0.00,205.20 0.00,203.20 -4.00,203.20"/>
    </edge>
    <edge id=":J1_w1" function="walkingarea">
        <lane id=":J1_w1_0" index="0" allow="pedestrian" speed="1.00" length="2.59" width="4.00" shape="-4.00,196.80 0.00,196.80 0.00,194.80 0.00,194.80 0.00,196.80 4.00,196.80"/>
    </edge>
    <edge id=":J10_0" function="internal">
        <lane id=":J10_0_0" index="0" disallow="pedestrian" speed="6.51" length="4.75" shape="98.40,-592.80 98.05,-595.25 97.00,-597.00 96.80,-597.12"/>
    </edge>
    <edge id=":J10_1" function="internal">
        <lane id=":J10_1_0" index="0" disallow="pedestrian" speed="13.89" length="14.40" shape="98.40,-592.80 98.40,-607.20"/>
    </edge>
    <edge id=":J10_2" function="internal">
        <lane id=":J10_2_0" index="0" disallow="pedestrian" speed="8.00" length="5.93" shape="98.40,-592.80 98.95,-596.65 100.00,-598.40"/>
    </edge>
    <edge id=":J10_12" function="internal">
        <lane id=":J10_12_0" index="0" disallow="pedestrian" speed="6.51" length="4.28" shape="96.80,-597.12 95.25,-598.05 92.80,-598.40"/>
    </edge>
    <edge id=":J10_13" function="internal">
        <lane id=":J10_13_0" index="0" disallow="pedestrian" speed="8.00" length="8.26" shape="100.00,-598.40 100.60,-599.40 103.35,-601.05 107.20,-601.60"/>
    </edge>
    <edge id=":J10_3" function="internal">
        <lane id=":J10_3_0" index="0" disallow="pedestrian" speed="6.51" length="9.03" shape="107.20,-598.40 104.75,-598.05 103.00,-597.00 101.95,-595.25 101.60,-592.80"/>
    </edge>
    <edge id=":J10_4" function="internal">
        <lane id=":J10_4_0" index="0" disallow="pedestrian" speed="13.89" length="14.40" shape="107.20,-598.40 92.80,-598.40"/>
    </edge>
    <edge id=":J10_5" function="internal">
        <lane id=":J10_5_0" index="0" disallow="pedestrian" speed="8.00" length="14.19" shape="107.20,-598.40 103.35,-598.95 100.60,-600.60 98.95,-603.35 98.40,-607.20"/>
    </edge>
    <edge id=":J10_6" function="internal">
        <lane id=":J10_6_0" index="0" disallow="pedestrian" speed="6.51" length="4.75" shape="101.60,-607.20 101.95,-604.75 103.00,-603.00 103.20,-602.88"/>
    </edge>
    <edge id=":J10_7" function="internal">
        <lane id=":J10_7_0" index="0" disallow="pedestrian" speed="13.89" length="14.40" shape="101.60,-607.20 101.60,-592.80"/>
    </edge>
    <edge id=":J10_8" function="internal">
        <lane id=":J10_8_0" index="0" disallow="pedestrian" speed="8.00" length="5.93" shape="101.60,-607.20 101.05,-603.35 100.00,-601.60"/>
    </edge>
    <edge id=":J10_14" function="internal">
        <lane id=":J10_14_0" index="0" disallow="pedestrian" speed="6.51" length="4.28" shape="103.20,-602.88 104.75,-601.95 107.20,-601.60"/>
    </edge>
    <edge id=":J10_15" function="internal">
        <lane id=":J10_15_0" index="0" disallow="pedestrian" speed="8.00" length="8.26" shape="100.00,-601.60 99.40,-600.60 96.65,-598.95 92.80,-598.40"/>
    </edge>
    <edge id=":J10_9" function="internal">
        <lane id=":J10_9_0" index="0" disallow="pedestrian" speed="6.51" length="9.03" shape="92.80,-601.60 95.25,-601.95 97.00,-603.00 98.05,-604.75 98.40,-607.20"/>
    </edge>
    <edge id=":J10_10" function="internal">
        <lane id=":J10_10_0" index="0" disallow="pedestrian" speed="13.89" length="14.40" shape="92.80,-601.60 107.20,-601.60"/>
    </edge>
    <edge id=":J10_11" function="internal">
        <lane id=":J10_11_0" index="0" disallow="pedestrian" speed="8.00" length="14.19" shape="92.80,-601.60 96.65,-601.05 99.40,-599.40 101.05,-596.65 101.60,-592.80"/>
    </edge>
    <edge id=":J10_c0" function="crossing" crossingEdges="E19 E18">
        <lane id=":J10_c0_0" index="0" allow="pedestrian" speed="1.00" length="6.40" width="4.00" shape="103.20,-594.80 96.80,-594.80"/>
    </edge>
    <edge id=":J10_c1" function="crossing" crossingEdges="E555 E556">
        <lane id=":J10_c1_0" index="0" allow="pedestrian" speed="1.00" length="6.40" width="4.00" shape="105.20,-603.20 105.20,-596.80"/>
    </edge>
    <edge id=":J10_c2" function="crossing" crossingEdges="E20 E21">
        <lane id=":J10_c2_0" index="0" allow="pedestrian" speed="1.00" length="6.40" width="4.00" shape="96.80,-605.20 103.20,-605.20"/>
    </edge>
    <edge id=":J10_c3" function="crossing" crossingEdges="E553 E552">
        <lane id=":J10_c3_0" index="0" allow="pedestrian" speed="1.00" length="6.40" width="4.00" shape="94.80,-596.80 94.80,-603.20"/>
    </edge>
    <edge id=":J10_w0" function="walkingarea">
        <lane id=":J10_w0_0" index="0" allow="pedestrian" speed="1.00" length="3.30" width="4.00" shape="92.80,-596.80 92.80,-594.80 94.80,-592.80 96.80,-592.80 96.69,-594.02 96.36,-595.02 95.80,-595.80 95.02,-596.36 94.02,-596.69"/>
    </edge>
    <edge id=":J10_w1" function="walkingarea">
        <lane id=":J10_w1_0" index="0" allow="pedestrian" speed="1.00" length="3.30" width="4.00" shape="103.20,-592.80 105.20,-592.80 107.20,-594.80 107.20,-596.80 105.98,-596.69 104.98,-596.36 104.20,-595.80 103.64,-595.02 103.31,-594.02"/>
    </edge>
    <edge id=":J10_w2" function="walkingarea">
        <lane id=":J10_w2_0" index="0" allow="pedestrian" speed="1.00" length="3.30" width="4.00" shape="107.20,-603.20 107.20,-605.20 105.20,-607.20 103.20,-607.20 103.31,-605.98 103.64,-604.98 104.20,-604.20 104.98,-603.64 105.98,-603.31"/>
    </edge>
    <edge id=":J10_w3" function="walkingarea">
        <lane id=":J10_w3_0" index="0" allow="pedestrian" speed="1.00" length="3.30" width="4.00" shape="96.80,-607.20 94.80,-607.20 92.80,-605.20 92.80,-603.20 94.02,-603.31 95.02,-603.64 95.80,-604.20 96.36,-604.98 96.69,-605.98"/>
    </edge>
    <edge id=":J100_0" function="internal">
        <lane id=":J100_0_0" index="0" disallow="pedestrian" speed="6.51" length="4.75" shape="98.40,-1192.80 98.05,-1195.25 97.00,-1197.00 96.80,-1197.12"/>
    </edge>
    <edge id=":J100_1" function="internal">
        <lane id=":J100_1_0" index="0" disallow="pedestrian" speed="13.89" length="14.40" shape="98.40,-1192.80 98.40,-1207.20"/>
    </edge>
    <edge id=":J100_2" function="internal">
        <lane id=":J100_2_0" index="0" disallow="pedestrian" speed="8.00" length="5.93" shape="98.40,-1192.80 98.95,-1196.65 100.00,-1198.40"/>
    </edge>
    <edge id=":J100_12" function="internal">
        <lane id=":J100_12_0" index="0" disallow="pedestrian" speed="6.51" length="4.28" shape="96.80,-1197.12 95.25,-1198.05 92.80,-1198.40"/>
    </edge>
    <edge id=":J100_13" function="internal">
        <lane id=":J100_13_0" index="0" disallow="pedestrian" speed="8.00" length="8.26" shape="100.00,-1198.40 100.60,-1199.40 103.35,-1201.05 107.20,-1201.60"/>
    </edge>
    <edge id=":J100_3" function="internal">
        <lane id=":J100_3_0" index="0" disallow="pedestrian" speed="6.51" length="9.03" shape="107.20,-1198.40 104.75,-1198.05 103.00,-1197.00 101.95,-1195.25 101.60,-1192.80"/>
    </edge>
    <edge id=":J100_4" function="internal">
        <lane id=":J100_4_0" index="0" disallow="pedestrian" speed="13.89" length="14.40" shape="107.20,-1198.40 92.80,-1198.40"/>
    </edge>
    <edge id=":J100_5" function="internal">
        <lane id=":J100_5_0" index="0" disallow="pedestrian" speed="8.00" length="14.19" shape="107.20,-1198.40 103.35,-1198.95 100.60,-1200.60 98.95,-1203.35 98.40,-1207.20"/>
    </edge>
    <edge id=":J100_6" function="internal">
        <lane id=":J100_6_0" index="0" disallow="pedestrian" speed="6.51" length="4.75" shape="101.60,-1207.20 101.95,-1204.75 103.00,-1203.00 103.20,-1202.88"/>
    </edge>
    <edge id=":J100_7" function="internal">
        <lane id=":J100_7_0" index="0" disallow="pedestrian" speed="13.89" length="14.40" shape="101.60,-1207.20 101.60,-1192.80"/>
    </edge>
    <edge id=":J100_8" function="internal">
        <lane id=":J100_8_0" index="0" disallow="pedestrian" speed="8.00" length="5.93" shape="101.60,-1207.20 101.05,-1203.35 100.00,-1201.60"/>
    </edge>
    <edge id=":J100_14" function="internal">
        <lane id=":J100_14_0" index="0" disallow="pedestrian" speed="6.51" length="4.28" shape="103.20,-1202.88 104.75,-1201.95 107.20,-1201.60"/>
    </edge>
    <edge id=":J100_15" function="internal">
        <lane id=":J100_15_0" index="0" disallow="pedestrian" speed="8.00" length="8.26" shape="100.00,-1201.60 99.40,-1200.60 96.65,-1198.95 92.80,-1198.40"/>
    </edge>
    <edge id=":J100_9" function="internal">
        <lane id=":J100_9_0" index="0" disallow="pedestrian" speed="6.51" length="9.03" shape="92.80,-1201.60 95.25,-1201.95 97.00,-1203.00 98.05,-1204.75 98.40,-1207.20"/>
    </edge>
    <edge id=":J100_10" function="internal">
        <lane id=":J100_10_0" index="0" disallow="pedestrian" speed="13.89" length="14.40" shape="92.80,-1201.60 107.20,-1201.60"/>
    </edge>
    <edge id=":J100_11" function="internal">
        <lane id=":J100_11_0" index="0" disallow="pedestrian" speed="8.00" length="14.19" shape="92.80,-1201.60 96.65,-1201.05 99.40,-1199.40 101.05,-1196.65 101.60,-1192.80"/>
    </edge>
    <edge id=":J100_c0" function="crossing" crossingEdges="E196 E197">
        <lane id=":J100_c0_0" index="0" allow="pedestrian" speed="1.00" length="6.40" width="4.00" shape="103.20,-1194.80 96.80,-1194.80"/>
    </edge>
    <edge id=":J100_c1" function="crossing" crossingEdges="E699 E700">
        <lane id=":J100_c1_0" index="0" allow="pedestrian" speed="1.00" length="6.40" width="4.00" shape="105.20,-1203.20 105.20,-1196.80"/>
    </edge>
    <edge id=":J100_c2" function="crossing" crossingEdges="E195 E194">
        <lane id=":J100_c2_0" index="0" allow="pedestrian" speed="1.00" length="6.40" width="4.00" shape="96.80,-1205.20 103.20,-1205.20"/>
    </edge>
    <edge id=":J100_c3" function="crossing" crossingEdges="E698 E697">
        <lane id=":J100_c3_0" index="0" allow="pedestrian" speed="1.00" length="6.40" width="4.00" shape="94.80,-1196.80 94.80,-1203.20"/>
    </edge>
    <edge id=":J100_w0" function="walkingarea">
        <lane id=":J100_w0_0" index="0" allow="pedestrian" speed="1.00" length="3.30" width="4.00" shape="92.80,-1196.80 92.80,-1194.80 94.80,-1192.80 96.80,-1192.80 96.69,-1194.02 96.36,-1195.02 95.80,-1195.80 95.02,-1196.36 94.02,-1196.69"/>
    </edge>
    <edge id=":J100_w1" function="walkingarea">
        <lane id=":J100_w1_0" index="0" allow="pedestrian" speed="1.00" length="3.30" width="4.00" shape="103.20,-1192.80 105.20,-1192.80 107.20,-1194.80 107.20,-1196.80 105.98,-1196.69 104.98,-1196.36 104.20,-1195.80 103.64,-1195.02 103.31,-1194.02"/>
    </edge>
    <edge id=":J100_w2" function="walkingarea">
        <lane id=":J100_w2_0" index="0" allow="pedestrian" speed="1.00" length="3.30" width="4.00" shape="107.20,-1203.20 107.20,-1205.20 105.20,-1207.20 103.20,-1207.20 103.31,-1205.98 103.64,-1204.98 104.20,-1204.20 104.98,-1203.64 105.98,-1203.31"/>
    </edge>
    <edge id=":J100_w3" function="walkingarea">
        <lane id=":J100_w3_0" index="0" allow="pedestrian" speed="1.00" length="3.30" width="4.00" shape="96.80,-1207.20 94.80,-1207.20 92.80,-1205.20 92.80,-1203.20 94.02,-1203.31 95.02,-1203.64 95.80,-1204.20 96.36,-1204.98 96.69,-1205.98"/>
    </edge>
    <edge id=":J101_0" function="internal">
        <lane id=":J101_0_0" index="0" disallow="pedestrian" speed="6.51" length="4.75" shape="98.40,-1092.80 98.05,-1095.25 97.00,-1097.00 96.80,-1097.12"/>
    </edge>
    <edge id=":J101_1" function="internal">
        <lane id=":J101_1_0" index="0" disallow="pedestrian" speed="13.89" length="14.40" shape="98.40,-1092.80 98.40,-1107.20"/>
    </edge>
    <edge id=":J101_2" function="internal">
        <lane id=":J101_2_0" index="0" disallow="pedestrian" speed="8.00" length="5.93" shape="98.40,-1092.80 98.95,-1096.65 100.00,-1098.40"/>
    </edge>
    <edge id=":J101_12" function="internal">
        <lane id=":J101_12_0" index="0" disallow="pedestrian" speed="6.51" length="4.28" shape="96.80,-1097.12 95.25,-1098.05 92.80,-1098.40"/>
    </edge>
    <edge id=":J101_13" function="internal">
        <lane id=":J101_13_0" index="0" disallow="pedestrian" speed="8.00" length="8.26" shape="100.00,-1098.40 100.60,-1099.40 103.35,-1101.05 107.20,-1101.60"/>
    </edge>
    <edge id=":J101_3" function="internal">
        <lane id=":J101_3_0" index="0" disallow="pedestrian" speed="6.51" length="9.03" shape="107.20,-1098.40 104.75,-1098.05 103.00,-1097.00 101.95,-1095.25 101.60,-1092.80"/>
    </edge>
    <edge id=":J101_4" function="internal">
        <lane id=":J101_4_0" index="0" disallow="pedestrian" speed="13.89" length="14.40" shape="107.20,-1098.40 92.80,-1098.40"/>
    </edge>
    <edge id=":J101_5" function="internal">
        <lane id=":J101_5_0" index="0" disallow="pedestrian" speed="8.00" length="14.19" shape="107.20,-1098.40 103.35,-1098.95 100.60,-1100.60 98.95,-1103.35 98.40,-1107.20"/>
    </edge>
    <edge id=":J101_6" function="internal">
        <lane id=":J101_6_0" index="0" disallow="pedestrian" speed="6.51" length="4.75" shape="101.60,-1107.20 101.95,-1104.75 103.00,-1103.00 103.20,-1102.88"/>
    </edge>
    <edge id=":J101_7" function="internal">
        <lane id=":J101_7_0" index="0" disallow="pedestrian" speed="13.89" length="14.40" shape="101.60,-1107.20 101.60,-1092.80"/>
    </edge>
    <edge id=":J101_8" function="internal">
        <lane id=":J101_8_0" index="0" disallow="pedestrian" speed="8.00" length="5.93" shape="101.60,-1107.20 101.05,-1103.35 100.00,-1101.60"/>
    </edge>
    <edge id=":J101_14" function="internal">
        <lane id=":J101_14_0" index="0" disallow="pedestrian" speed="6.51" length="4.28" shape="103.20,-1102.88 104.75,-1101.95 107.20,-1101.60"/>
    </edge>
    <edge id=":J101_15" function="internal">
        <lane id=":J101_15_0" index="0" disallow="pedestrian" speed="8.00" length="8.26" shape="100.00,-1101.60 99.40,-1100.60 96.65,-1098.95 92.80,-1098.40"/>
    </edge>
    <edge id=":J101_9" function="internal">
        <lane id=":J101_9_0" index="0" disallow="pedestrian" speed="6.51" length="9.03" shape="92.80,-1101.60 95.25,-1101.95 97.00,-1103.00 98.05,-1104.75 98.40,-1107.20"/>
    </edge>
    <edge id=":J101_10" function="internal">
        <lane id=":J101_10_0" index="0" disallow="pedestrian" speed="13.89" length="14.40" shape="92.80,-1101.60 107.20,-1101.60"/>
    </edge>
    <edge id=":J101_11" function="internal">
        <lane id=":J101_11_0" index="0" disallow="pedestrian" speed="8.00" length="14.19" shape="92.80,-1101.60 96.65,-1101.05 99.40,-1099.40 101.05,-1096.65 101.60,-1092.80"/>
    </edge>
    <edge id=":J101_c0" function="crossing" crossingEdges="E198 E199">
        <lane id=":J101_c0_0" index="0" allow="pedestrian" speed="1.00" length="6.40" width="4.00" shape="103.20,-1094.80 96.80,-1094.80"/>
    </edge>
    <edge id=":J101_c1" function="crossing" crossingEdges="E681 E682">
        <lane id=":J101_c1_0" index="0" allow="pedestrian" speed="1.00" length="6.40" width="4.00" shape="105.20,-1103.20 105.20,-1096.80"/>
    </edge>
    <edge id=":J101_c2" function="crossing" crossingEdges="E197 E196">
        <lane id=":J101_c2_0" index="0" allow="pedestrian" speed="1.00" length="6.40" width="4.00" shape="96.80,-1105.20 103.20,-1105.20"/>
    </edge>
    <edge id=":J101_c3" function="crossing" crossingEdges="E680 E679">
        <lane id=":J101_c3_0" index="0" allow="pedestrian" speed="1.00" length="6.40" width="4.00" shape="94.80,-1096.80 94.80,-1103.20"/>
    </edge>
    <edge id=":J101_w0" function="walkingarea">
        <lane id=":J101_w0_0" index="0" allow="pedestrian" speed="1.00" length="3.30" width="4.00" shape="92.80,-1096.80 92.80,-1094.80 94.80,-1092.80 96.80,-1092.80 96.69,-1094.02 96.36,-1095.02 95.80,-1095.80 95.02,-1096.36 94.02,-1096.69"/>
    </edge>
    <edge id=":J101_w1" function="walkingarea">
        <lane id=":J101_w1_0" index="0" allow="pedestrian" speed="1.00" length="3.30" width="4.00" shape="103.20,-1092.80 105.20,-1092.80 107.20,-1094.80 107.20,-1096.80 105.98,-1096.69 104.98,-1096.36 104.20,-1095.80 103.64,-1095.02 103.31,-1094.02"/>
    </edge>
    <edge id=":J101_w2" function="walkingarea">
        <lane id=":J101_w2_0" index="0" allow="pedestrian" speed="1.00" length="3.30" width="4.00" shape="107.20,-1103.20 107.20,-1105.20 105.20,-1107.20 103.20,-1107.20 103.31,-1105.98 103.64,-1104.98 104.20,-1104.20 104.98,-1103.64 105.98,-1103.31"/>
    </edge>
    <edge id=":J101_w3" function="walkingarea">
        <lane id=":J101_w3_0" index="0" allow="pedestrian" speed="1.00" length="3.30" width="4.00" shape="96.80,-1107.20 94.80,-1107.20 92.80,-1105.20 92.80,-1103.20 94.02,-1103.31 95.02,-1103.64 95.80,-1104.20 96.36,-1104.98 96.69,-1105.98"/>
    </edge>
    <edge id=":J102_0" function="internal">
        <lane id=":J102_0_0" index="0" disallow="pedestrian" speed="6.51" length="4.75" shape="98.40,-992.80 98.05,-995.25 97.00,-997.00 96.80,-997.12"/>
    </edge>
    <edge id=":J102_1" function="internal">
        <lane id=":J102_1_0" index="0" disallow="pedestrian" speed="13.89" length="14.40" shape="98.40,-992.80 98.40,-1007.20"/>
    </edge>
    <edge id=":J102_2" function="internal">
        <lane id=":J102_2_0" index="0" disallow="pedestrian" speed="7.80" length="4.60" shape="98.40,-992.80 99.19,-995.93 100.00,-997.04"/>
    </edge>
    <edge id=":J102_16" function="internal">
        <lane id=":J102_16_0" index="0" disallow="pedestrian" speed="6.51" length="4.28" shape="96.80,-997.12 95.25,-998.05 92.80,-998.40"/>
    </edge>
    <edge id=":J102_17" function="internal">
        <lane id=":J102_17_0" index="0" disallow="pedestrian" speed="7.80" length="8.84" shape="100.00,-997.04 101.24,-998.76 104.07,-1000.81 107.20,-1001.60"/>
    </edge>
    <edge id=":J102_3" function="internal">
        <lane id=":J102_3_0" index="0" disallow="pedestrian" speed="6.51" length="9.03" shape="98.40,-992.80 98.05,-995.25 97.00,-997.00 95.25,-998.05 92.80,-998.40"/>
    </edge>
    <edge id=":J102_4" function="internal">
        <lane id=":J102_4_0" index="0" disallow="pedestrian" speed="13.89" length="14.40" shape="98.40,-992.80 98.40,-1007.20"/>
    </edge>
    <edge id=":J102_5" function="internal">
        <lane id=":J102_5_0" index="0" disallow="pedestrian" speed="8.00" length="14.19" shape="98.40,-992.80 98.95,-996.65 100.60,-999.40 103.35,-1001.05 107.20,-1001.60"/>
    </edge>
    <edge id=":J102_6" function="internal">
        <lane id=":J102_6_0" index="0" disallow="pedestrian" speed="3.24" length="3.20" shape="98.40,-992.80 101.60,-992.80"/>
    </edge>
    <edge id=":J102_7" function="internal">
        <lane id=":J102_7_0" index="0" disallow="pedestrian" speed="6.51" length="9.03" shape="107.20,-998.40 104.75,-998.05 103.00,-997.00 101.95,-995.25 101.60,-992.80"/>
    </edge>
    <edge id=":J102_8" function="internal">
        <lane id=":J102_8_0" index="0" disallow="pedestrian" speed="13.89" length="14.40" shape="107.20,-998.40 92.80,-998.40"/>
    </edge>
    <edge id=":J102_9" function="internal">
        <lane id=":J102_9_0" index="0" disallow="pedestrian" speed="8.00" length="14.19" shape="107.20,-998.40 103.35,-998.95 100.60,-1000.60 98.95,-1003.35 98.40,-1007.20"/>
    </edge>
    <edge id=":J102_10" function="internal">
        <lane id=":J102_10_0" index="0" disallow="pedestrian" speed="6.51" length="4.75" shape="101.60,-1007.20 101.95,-1004.75 103.00,-1003.00 103.20,-1002.88"/>
    </edge>
    <edge id=":J102_11" function="internal">
        <lane id=":J102_11_0" index="0" disallow="pedestrian" speed="13.89" length="14.40" shape="101.60,-1007.20 101.60,-992.80"/>
    </edge>
    <edge id=":J102_12" function="internal">
        <lane id=":J102_12_0" index="0" disallow="pedestrian" speed="8.00" length="5.93" shape="101.60,-1007.20 101.05,-1003.35 100.00,-1001.60"/>
    </edge>
    <edge id=":J102_18" function="internal">
        <lane id=":J102_18_0" index="0" disallow="pedestrian" speed="6.51" length="4.28" shape="103.20,-1002.88 104.75,-1001.95 107.20,-1001.60"/>
    </edge>
    <edge id=":J102_19" function="internal">
        <lane id=":J102_19_0" index="0" disallow="pedestrian" speed="8.00" length="8.26" shape="100.00,-1001.60 99.40,-1000.60 96.65,-998.95 92.80,-998.40"/>
    </edge>
    <edge id=":J102_13" function="internal">
        <lane id=":J102_13_0" index="0" disallow="pedestrian" speed="6.51" length="9.03" shape="92.80,-1001.60 95.25,-1001.95 97.00,-1003.00 98.05,-1004.75 98.40,-1007.20"/>
    </edge>
    <edge id=":J102_14" function="internal">
        <lane id=":J102_14_0" index="0" disallow="pedestrian" speed="13.89" length="14.40" shape="92.80,-1001.60 107.20,-1001.60"/>
    </edge>
    <edge id=":J102_15" function="internal">
        <lane id=":J102_15_0" index="0" disallow="pedestrian" speed="8.00" length="14.19" shape="92.80,-1001.60 96.65,-1001.05 99.40,-999.40 101.05,-996.65 101.60,-992.80"/>
    </edge>
    <edge id=":J102_c0" function="crossing" crossingEdges="E200 E201">
        <lane id=":J102_c0_0" index="0" allow="pedestrian" speed="1.00" length="6.40" width="4.00" shape="103.20,-994.80 96.80,-994.80"/>
    </edge>
    <edge id=":J102_c1" function="crossing" crossingEdges="E656 E657">
        <lane id=":J102_c1_0" index="0" allow="pedestrian" speed="1.00" length="6.40" width="4.00" shape="105.20,-1003.20 105.20,-996.80"/>
    </edge>
    <edge id=":J102_c2" function="crossing" crossingEdges="E199 E198">
        <lane id=":J102_c2_0" index="0" allow="pedestrian" speed="1.00" length="6.40" width="4.00" shape="96.80,-1005.20 103.20,-1005.20"/>
    </edge>
    <edge id=":J102_c3" function="crossing" crossingEdges="E655 E654">
        <lane id=":J102_c3_0" index="0" allow="pedestrian" speed="1.00" length="6.40" width="4.00" shape="94.80,-996.80 94.80,-1003.20"/>
    </edge>
    <edge id=":J102_w0" function="walkingarea">
        <lane id=":J102_w0_0" index="0" allow="pedestrian" speed="1.00" length="3.30" width="4.00" shape="92.80,-996.80 92.80,-994.80 94.80,-992.80 96.80,-992.80 96.69,-994.02 96.36,-995.02 95.80,-995.80 95.02,-996.36 94.02,-996.69"/>
    </edge>
    <edge id=":J102_w2" function="walkingarea">
        <lane id=":J102_w2_0" index="0" allow="pedestrian" speed="1.00" length="3.30" width="4.00" shape="103.20,-992.80 105.20,-992.80 107.20,-994.80 107.20,-996.80 105.98,-996.69 104.98,-996.36 104.20,-995.80 103.64,-995.02 103.31,-994.02"/>
    </edge>
    <edge id=":J102_w3" function="walkingarea">
        <lane id=":J102_w3_0" index="0" allow="pedestrian" speed="1.00" length="3.30" width="4.00" shape="107.20,-1003.20 107.20,-1005.20 105.20,-1007.20 103.20,-1007.20 103.31,-1005.98 103.64,-1004.98 104.20,-1004.20 104.98,-1003.64 105.98,-1003.31"/>
    </edge>
    <edge id=":J102_w4" function="walkingarea">
        <lane id=":J102_w4_0" index="0" allow="pedestrian" speed="1.00" length="3.30" width="4.00" shape="96.80,-1007.20 94.80,-1007.20 92.80,-1005.20 92.80,-1003.20 94.02,-1003.31 95.02,-1003.64 95.80,-1004.20 96.36,-1004.98 96.69,-1005.98"/>
    </edge>
    <edge id=":J103_0" function="internal">
        <lane id=":J103_0_0" index="0" disallow="pedestrian" speed="6.51" length="9.03" shape="107.20,-898.40 104.75,-898.05 103.00,-897.00 101.95,-895.25 101.60,-892.80"/>
    </edge>
    <edge id=":J103_1" function="internal">
        <lane id=":J103_1_0" index="0" disallow="pedestrian" speed="13.89" length="14.40" shape="107.20,-898.40 92.80,-898.40"/>
    </edge>
    <edge id=":J103_2" function="internal">
        <lane id=":J103_2_0" index="0" disallow="pedestrian" speed="8.00" length="5.93" shape="107.20,-898.40 103.35,-898.95 101.60,-900.00"/>
    </edge>
    <edge id=":J103_9" function="internal">
        <lane id=":J103_9_0" index="0" disallow="pedestrian" speed="8.00" length="8.26" shape="101.60,-900.00 100.60,-900.60 98.95,-903.35 98.40,-907.20"/>
    </edge>
    <edge id=":J103_3" function="internal">
        <lane id=":J103_3_0" index="0" disallow="pedestrian" speed="6.51" length="9.03" shape="101.60,-907.20 101.95,-904.75 103.00,-903.00 104.75,-901.95 107.20,-901.60"/>
    </edge>
    <edge id=":J103_4" function="internal">
        <lane id=":J103_4_0" index="0" disallow="pedestrian" speed="13.89" length="14.40" shape="101.60,-907.20 101.60,-892.80"/>
    </edge>
    <edge id=":J103_5" function="internal">
        <lane id=":J103_5_0" index="0" disallow="pedestrian" speed="8.00" length="14.19" shape="101.60,-907.20 101.05,-903.35 99.40,-900.60 96.65,-898.95 92.80,-898.40"/>
    </edge>
    <edge id=":J103_6" function="internal">
        <lane id=":J103_6_0" index="0" disallow="pedestrian" speed="6.51" length="4.75" shape="92.80,-901.60 95.25,-901.95 97.00,-903.00 97.12,-903.20"/>
    </edge>
    <edge id=":J103_7" function="internal">
        <lane id=":J103_7_0" index="0" disallow="pedestrian" speed="13.89" length="14.40" shape="92.80,-901.60 107.20,-901.60"/>
    </edge>
    <edge id=":J103_8" function="internal">
        <lane id=":J103_8_0" index="0" disallow="pedestrian" speed="8.00" length="5.93" shape="92.80,-901.60 96.65,-901.05 98.40,-900.00"/>
    </edge>
    <edge id=":J103_10" function="internal">
        <lane id=":J103_10_0" index="0" disallow="pedestrian" speed="6.51" length="4.28" shape="97.12,-903.20 98.05,-904.75 98.40,-907.20"/>
    </edge>
    <edge id=":J103_11" function="internal">
        <lane id=":J103_11_0" index="0" disallow="pedestrian" speed="8.00" length="8.26" shape="98.40,-900.00 99.40,-899.40 101.05,-896.65 101.60,-892.80"/>
    </edge>
    <edge id=":J103_c0" function="crossing" crossingEdges="E632 E633">
        <lane id=":J103_c0_0" index="0" allow="pedestrian" speed="1.00" length="6.40" width="4.00" shape="105.20,-903.20 105.20,-896.80"/>
    </edge>
    <edge id=":J103_c1" function="crossing" crossingEdges="E201 E200">
        <lane id=":J103_c1_0" index="0" allow="pedestrian" speed="1.00" length="6.40" width="4.00" shape="96.80,-905.20 103.20,-905.20"/>
    </edge>
    <edge id=":J103_c2" function="crossing" crossingEdges="E712 E630">
        <lane id=":J103_c2_0" index="0" allow="pedestrian" speed="1.00" length="6.40" width="4.00" shape="94.80,-896.80 94.80,-903.20"/>
    </edge>
    <edge id=":J103_w0" function="walkingarea">