<?xml version="1.0" encoding="UTF-8"?>

<!-- generated on Thứ tư, 01 Tháng 5 Năm 2024 15:30:22 +07 by Eclipse SUMO netedit Version 1.8.0
<configuration xmlns:xsi="http://www.w3.org/2001/XMLSchema-instance" xsi:noNamespaceSchemaLocation="http://sumo.dlr.de/xsd/netconvertConfiguration.xsd">

    <input>
        <sumo-net-file value="/home/hieudp/Documents/map2/map2.net.xml"/>
    </input>

    <output>
        <output-file value="/home/hieudp/Documents/map2/map2.net.xml"/>
    </output>

    <processing>
        <geometry.min-radius.fix.railways value="false"/>
        <geometry.max-grade.fix value="false"/>
        <offset.disable-normalization value="true"/>
        <lefthand value="false"/>
    </processing>

    <junctions>
        <no-internal-links value="false"/>
        <no-turnarounds value="true"/>
        <junctions.corner-detail value="5"/>
        <junctions.limit-turn-speed value="5.5"/>
        <rectangular-lane-cut value="false"/>
    </junctions>

    <pedestrian>
        <walkingareas value="false"/>
    </pedestrian>

    <report>
        <aggregate-warnings value="5"/>
    </report>

</configuration>
-->

<net version="1.6" junctionCornerDetail="5" limitTurnSpeed="5.50" xmlns:xsi="http://www.w3.org/2001/XMLSchema-instance" xsi:noNamespaceSchemaLocation="http://sumo.dlr.de/xsd/net_file.xsd">

    <location netOffset="0.00,0.00" convBoundary="-900.00,-700.00,2400.00,1700.00" origBoundary="-10000000000.00,-10000000000.00,10000000000.00,10000000000.00" projParameter="!"/>

    <edge id=":J0_0" function="internal">
        <lane id=":J0_0_0" index="0" disallow="pedestrian" speed="8.90" length="13.82" shape="-1.60,7.20 -2.57,4.75 -5.49,3.00 -10.35,1.95 -13.16,1.81"/>
    </edge>
    <edge id=":J0_1" function="internal">
        <lane id=":J0_1_0" index="0" disallow="pedestrian" speed="13.66" length="17.46" shape="-1.60,7.20 -2.41,3.76 -4.83,-0.13 -8.87,-4.47 -11.47,-6.68"/>
    </edge>
    <edge id=":J0_2" function="internal">
        <lane id=":J0_2_0" index="0" disallow="pedestrian" speed="13.89" length="19.83" shape="-1.60,7.20 -1.60,-12.63"/>
    </edge>
    <edge id=":J0_3" function="internal">
        <lane id=":J0_3_0" index="0" disallow="pedestrian" speed="8.00" length="5.93" shape="-1.60,7.20 -1.05,3.35 -0.00,1.60"/>
    </edge>
    <edge id=":J0_20" function="internal">
        <lane id=":J0_20_0" index="0" disallow="pedestrian" speed="8.90" length="4.01" shape="-13.16,1.81 -17.16,1.60"/>
    </edge>
    <edge id=":J0_21" function="internal">
        <lane id=":J0_21_0" index="0" disallow="pedestrian" speed="13.66" length="4.00" shape="-11.47,-6.68 -14.52,-9.27"/>
    </edge>
    <edge id=":J0_22" function="internal">
        <lane id=":J0_22_0" index="0" disallow="pedestrian" speed="8.00" length="8.26" shape="-0.00,1.60 0.60,0.60 3.35,-1.05 7.20,-1.60"/>
    </edge>
    <edge id=":J0_4" function="internal">
        <lane id=":J0_4_0" index="0" disallow="pedestrian" speed="6.51" length="9.03" shape="7.20,1.60 4.75,1.95 3.00,3.00 1.95,4.75 1.60,7.20"/>
    </edge>
    <edge id=":J0_5" function="internal">
        <lane id=":J0_5_0" index="0" disallow="pedestrian" speed="13.89" length="24.36" shape="7.20,1.60 -17.16,1.60"/>
    </edge>
    <edge id=":J0_6" function="internal">
        <lane id=":J0_6_0" index="0" disallow="pedestrian" speed="13.89" length="24.90" shape="7.20,1.60 0.70,0.76 -4.45,-1.53 -9.21,-4.98 -14.52,-9.27"/>
    </edge>
    <edge id=":J0_7" function="internal">
        <lane id=":J0_7_0" index="0" disallow="pedestrian" speed="9.13" length="18.78" shape="7.20,1.60 3.35,0.71 0.60,-1.96 -1.05,-6.41 -1.60,-12.63"/>
    </edge>
    <edge id=":J0_8" function="internal">
        <lane id=":J0_8_0" index="0" disallow="pedestrian" speed="7.87" length="8.75" shape="1.60,-12.63 1.95,-7.81 3.00,-4.36 3.20,-4.12"/>
    </edge>
    <edge id=":J0_9" function="internal">
        <lane id=":J0_9_0" index="0" disallow="pedestrian" speed="13.89" length="19.83" shape="1.60,-12.63 1.60,7.20"/>
    </edge>
    <edge id=":J0_10" function="internal">
        <lane id=":J0_10_0" index="0" disallow="pedestrian" speed="10.80" length="7.03" shape="1.60,-12.63 0.43,-6.41 0.00,-5.86"/>
    </edge>
    <edge id=":J0_11" function="internal">
        <lane id=":J0_11_0" index="0" disallow="pedestrian" speed="8.01" length="5.50" shape="1.60,-12.63 0.10,-7.46 -0.00,-7.41"/>
    </edge>
    <edge id=":J0_23" function="internal">
        <lane id=":J0_23_0" index="0" disallow="pedestrian" speed="7.87" length="4.95" shape="3.20,-4.12 4.75,-2.29 7.20,-1.60"/>
    </edge>
    <edge id=":J0_24" function="internal">
        <lane id=":J0_24_0" index="0" disallow="pedestrian" speed="10.80" length="19.67" shape="0.00,-5.86 -3.09,-1.96 -8.95,0.71 -17.16,1.60"/>
    </edge>
    <edge id=":J0_25" function="internal">
        <lane id=":J0_25_0" index="0" disallow="pedestrian" speed="8.01" length="15.89" shape="-0.00,-7.41 -3.75,-5.41 -8.96,-6.14 -14.52,-9.27"/>
    </edge>
    <edge id=":J0_12" function="internal">
        <lane id=":J0_12_0" index="0" disallow="pedestrian" speed="6.87" length="15.35" shape="-12.56,-11.80 -7.76,-8.65 -4.34,-7.74 -2.28,-9.07 -1.60,-12.63"/>
    </edge>
    <edge id=":J0_13" function="internal">
        <lane id=":J0_13_0" index="0" disallow="pedestrian" speed="13.89" length="22.89" shape="-12.56,-11.80 -7.55,-7.61 -3.47,-4.40 1.00,-2.33 7.20,-1.60"/>
    </edge>
    <edge id=":J0_14" function="internal">
        <lane id=":J0_14_0" index="0" disallow="pedestrian" speed="13.89" length="24.34" shape="-12.56,-11.80 -6.36,-6.48 -1.94,-1.54 0.72,3.02 1.60,7.20"/>
    </edge>
    <edge id=":J0_15" function="internal">
        <lane id=":J0_15_0" index="0" disallow="pedestrian" speed="7.17" length="18.98" shape="-12.56,-11.80 -9.55,-7.66 -9.58,-3.29 -12.24,0.19 -17.16,1.60"/>
    </edge>
    <edge id=":J0_16" function="internal">
        <lane id=":J0_16_0" index="0" disallow="pedestrian" speed="6.40" length="14.76" shape="-17.16,-1.60 -12.31,-2.08 -10.25,-3.52 -10.99,-5.91 -14.52,-9.27"/>
    </edge>
    <edge id=":J0_17" function="internal">
        <lane id=":J0_17_0" index="0" disallow="pedestrian" speed="9.75" length="21.56" shape="-17.16,-1.60 -10.35,-2.29 -5.49,-4.36 -2.57,-7.81 -1.60,-12.63"/>
    </edge>
    <edge id=":J0_18" function="internal">
        <lane id=":J0_18_0" index="0" disallow="pedestrian" speed="13.89" length="24.36" shape="-17.16,-1.60 7.20,-1.60"/>
    </edge>
    <edge id=":J0_19" function="internal">
        <lane id=":J0_19_0" index="0" disallow="pedestrian" speed="9.78" length="21.70" shape="-17.16,-1.60 -11.31,-0.84 -5.19,1.15 -0.36,3.97 1.60,7.20"/>
    </edge>
    <edge id=":J0_c0" function="crossing" crossingEdges="E3 E4">
        <lane id=":J0_c0_0" index="0" allow="pedestrian" speed="1.00" length="6.40" width="4.00" shape="3.20,5.20 -3.20,5.20"/>
    </edge>
    <edge id=":J0_c1" function="crossing" crossingEdges="E0 E2">
        <lane id=":J0_c1_0" index="0" allow="pedestrian" speed="1.00" length="6.40" width="4.00" shape="5.20,-3.20 5.20,3.20"/>
    </edge>
    <edge id=":J0_c2" function="crossing" crossingEdges="E325 E326">
        <lane id=":J0_c2_0" index="0" allow="pedestrian" speed="1.00" length="6.40" width="4.00" shape="-3.20,-10.63 3.20,-10.63"/>
    </edge>
    <edge id=":J0_c3" function="crossing" crossingEdges="E84 E85">
        <lane id=":J0_c3_0" index="0" allow="pedestrian" speed="1.00" length="6.40" width="4.00" shape="-13.93,-6.78 -10.00,-11.83"/>
    </edge>
    <edge id=":J0_c4" function="crossing" crossingEdges="E249 E248">
        <lane id=":J0_c4_0" index="0" allow="pedestrian" speed="1.00" length="6.40" width="4.00" shape="-15.16,3.20 -15.16,-3.20"/>
    </edge>
    <edge id=":J0_w0" function="walkingarea">
        <lane id=":J0_w0_0" index="0" allow="pedestrian" speed="1.00" length="9.26" width="4.00" shape="-17.16,3.20 -17.16,5.20 -5.20,7.20 -3.20,7.20 -3.59,5.98 -4.75,4.98 -6.69,4.20 -9.40,3.64 -12.89,3.31"/>
    </edge>
    <edge id=":J0_w1" function="walkingarea">
        <lane id=":J0_w1_0" index="0" allow="pedestrian" speed="1.00" length="3.30" width="4.00" shape="3.20,7.20 5.20,7.20 7.20,5.20 7.20,3.20 5.98,3.31 4.98,3.64 4.20,4.20 3.64,4.98 3.31,5.98"/>
    </edge>
    <edge id=":J0_w2" function="walkingarea">
        <lane id=":J0_w2_0" index="0" allow="pedestrian" speed="1.00" length="6.36" width="4.00" shape="7.20,-3.20 7.20,-5.20 5.20,-12.63 3.20,-12.63 3.31,-9.75 3.64,-7.39 4.20,-5.56 4.98,-4.25 5.98,-3.46"/>
    </edge>
    <edge id=":J0_w3" function="walkingarea">
        <lane id=":J0_w3_0" index="0" allow="pedestrian" speed="1.00" length="5.42" width="4.00" shape="-3.20,-12.63 -5.20,-12.63 -10.35,-14.64 -11.58,-13.06 -9.02,-11.24 -6.92,-10.12 -5.29,-9.69 -4.13,-9.97 -3.43,-10.95"/>
    </edge>
    <edge id=":J0_w4" function="walkingarea">
        <lane id=":J0_w4_0" index="0" allow="pedestrian" speed="1.00" length="3.28" width="4.00" shape="-15.51,-8.01 -16.73,-6.43 -17.16,-5.20 -17.16,-3.20 -14.94,-3.33 -13.49,-3.73 -12.83,-4.40 -12.94,-5.34 -13.84,-6.54"/>
    </edge>
    <edge id=":J1_0" function="internal">
        <lane id=":J1_0_0" index="0" disallow="pedestrian" speed="6.51" length="9.03" shape="98.40,7.20 98.05,4.75 97.00,3.00 95.25,1.95 92.80,1.60"/>
    </edge>
    <edge id=":J1_1" function="internal">
        <lane id=":J1_1_0" index="0" disallow="pedestrian" speed="8.00" length="14.19" shape="98.40,7.20 98.95,3.35 100.60,0.60 103.35,-1.05 107.20,-1.60"/>
    </edge>
    <edge id=":J1_2" function="internal">
        <lane id=":J1_2_0" index="0" disallow="pedestrian" speed="6.51" length="4.75" shape="107.20,1.60 104.75,1.95 103.00,3.00 102.88,3.20"/>
    </edge>
    <edge id=":J1_3" function="internal">
        <lane id=":J1_3_0" index="0" disallow="pedestrian" speed="13.89" length="14.40" shape="107.20,1.60 92.80,1.60"/>
    </edge>
    <edge id=":J1_6" function="internal">
        <lane id=":J1_6_0" index="0" disallow="pedestrian" speed="6.51" length="4.28" shape="102.88,3.20 101.95,4.75 101.60,7.20"/>
    </edge>
    <edge id=":J1_4" function="internal">
        <lane id=":J1_4_0" index="0" disallow="pedestrian" speed="13.89" length="14.40" shape="92.80,-1.60 107.20,-1.60"/>
    </edge>
    <edge id=":J1_5" function="internal">
        <lane id=":J1_5_0" index="0" disallow="pedestrian" speed="8.00" length="5.93" shape="92.80,-1.60 96.65,-1.05 98.40,0.00"/>
    </edge>
    <edge id=":J1_7" function="internal">
        <lane id=":J1_7_0" index="0" disallow="pedestrian" speed="8.00" length="8.26" shape="98.40,0.00 99.40,0.60 101.05,3.35 101.60,7.20"/>
    </edge>
    <edge id=":J1_c0" function="crossing" crossingEdges="E234 E233">
        <lane id=":J1_c0_0" index="0" allow="pedestrian" speed="1.00" length="6.40" width="4.00" shape="103.20,5.20 96.80,5.20"/>
    </edge>
    <edge id=":J1_c1" function="crossing" crossingEdges="E66 E67">
        <lane id=":J1_c1_0" index="0" allow="pedestrian" speed="1.00" length="6.40" width="4.00" shape="105.20,-3.20 105.20,3.20"/>
    </edge>
    <edge id=":J1_c2" function="crossing" crossingEdges="E2 E0">
        <lane id=":J1_c2_0" index="0" allow="pedestrian" speed="1.00" length="6.40" width="4.00" shape="94.80,3.20 94.80,-3.20"/>
    </edge>
    <edge id=":J1_w0" function="walkingarea">
        <lane id=":J1_w0_0" index="0" allow="pedestrian" speed="1.00" length="3.30" width="4.00" shape="92.80,3.20 92.80,5.20 94.80,7.20 96.80,7.20 96.69,5.98 96.36,4.98 95.80,4.20 95.02,3.64 94.02,3.31"/>
    </edge>
    <edge id=":J1_w1" function="walkingarea">
        <lane id=":J1_w1_0" index="0" allow="pedestrian" speed="1.00" length="3.30" width="4.00" shape="103.20,7.20 105.20,7.20 107.20,5.20 107.20,3.20 105.98,3.31 104.98,3.64 104.20,4.20 103.64,4.98 103.31,5.98"/>
    </edge>
    <edge id=":J1_w2" function="walkingarea">
        <lane id=":J1_w2_0" index="0" allow="pedestrian" speed="1.00" length="9.03" width="4.00" shape="103.20,-3.20 107.20,-3.20 107.20,-5.20 92.80,-5.20 92.80,-3.20 96.80,-3.20"/>
    </edge>
    <edge id=":J10_0" function="internal">
        <lane id=":J10_0_0" index="0" disallow="pedestrian" speed="13.89" length="0.10" shape="-1.60,800.00 -1.60,800.00"/>
    </edge>
    <edge id=":J10_1" function="internal">
        <lane id=":J10_1_0" index="0" disallow="pedestrian" speed="13.89" length="0.10" shape="1.60,800.00 1.60,800.00"/>
    </edge>
    <edge id=":J10_c0" function="crossing" crossingEdges="E20 E21">
        <lane id=":J10_c0_0" index="0" allow="pedestrian" speed="1.00" length="6.40" width="4.00" shape="3.20,798.00 -3.20,798.00"/>
    </edge>
    <edge id=":J10_c1" function="crossing" crossingEdges="E19 E18">
        <lane id=":J10_c1_0" index="0" allow="pedestrian" speed="1.00" length="6.40" width="4.00" shape="-3.20,802.00 3.20,802.00"/>
    </edge>
    <edge id=":J10_w0" function="walkingarea">
        <lane id=":J10_w0_0" index="0" allow="pedestrian" speed="1.00" length="2.59" width="4.00" shape="-3.20,804.00 -3.20,800.00 -5.20,800.00 -5.20,800.00 -3.20,800.00 -3.20,796.00"/>
    </edge>
    <edge id=":J10_w1" function="walkingarea">
        <lane id=":J10_w1_0" index="0" allow="pedestrian" speed="1.00" length="2.59" width="4.00" shape="3.20,796.00 3.20,800.00 5.20,800.00 5.20,800.00 3.20,800.00 3.20,804.00"/>
    </edge>
    <edge id=":J100_c0" function="crossing" crossingEdges="E248 E249">
        <lane id=":J100_c0_0" index="0" allow="pedestrian" speed="1.00" length="6.40" width="4.00" shape="-902.00,-3.20 -902.00,3.20"/>
    </edge>
    <edge id=":J100_w0" function="walkingarea">
        <lane id=":J100_w0_0" index="0" allow="pedestrian" speed="1.00" length="2.24" width="4.00" shape="-904.00,-3.20 -900.00,-3.20 -900.00,-5.20"/>
    </edge>
    <edge id=":J100_w1" function="walkingarea">
        <lane id=":J100_w1_0" index="0" allow="pedestrian" speed="1.00" length="2.24" width="4.00" shape="-900.00,5.20 -900.00,3.20 -904.00,3.20"/>
    </edge>
    <edge id=":J101_c0" function="crossing" crossingEdges="E273 E274">
        <lane id=":J101_c0_0" index="0" allow="pedestrian" speed="1.00" length="6.40" width="4.00" shape="-902.00,496.80 -902.00,503.20"/>
    </edge>
    <edge id=":J101_w0" function="walkingarea">
        <lane id=":J101_w0_0" index="0" allow="pedestrian" speed="1.00" length="2.24" width="4.00" shape="-904.00,496.80 -900.00,496.80 -900.00,494.80"/>
    </edge>
    <edge id=":J101_w1" function="walkingarea">
        <lane id=":J101_w1_0" index="0" allow="pedestrian" speed="1.00" length="2.24" width="4.00" shape="-900.00,505.20 -900.00,503.20 -904.00,503.20"/>
    </edge>
    <edge id=":J105_c0" function="crossing" crossingEdges="E274 E273">
        <lane id=":J105_c0_0" index="0" allow="pedestrian" speed="1.00" length="6.40" width="4.00" shape="1902.00,503.20 1902.00,496.80"/>
    </edge>
    <edge id=":J105_w0" function="walkingarea">
        <lane id=":J105_w0_0" index="0" allow="pedestrian" speed="1.00" length="2.24" width="4.00" shape="1904.00,503.20 1900.00,503.20 1900.00,505.20"/>
    </edge>
    <edge id=":J105_w1" function="walkingarea">
        <lane id=":J105_w1_0" index="0" allow="pedestrian" speed="1.00" length="2.24" width="4.00" shape="1900.00,494.80 1900.00,496.80 1904.00,496.80"/>
    </edge>
    <edge id=":J11_0" function="internal">
        <lane id=":J11_0_0" index="0" disallow="pedestrian" speed="6.51" length="4.75" shape="-1.60,907.20 -1.95,904.75 -3.00,903.00 -3.20,902.88"/>
    </edge>
    <edge id=":J11_1" function="internal">
        <lane id=":J11_1_0" index="0" disallow="pedestrian" speed="13.89" length="14.40" shape="-1.60,907.20 -1.60,892.80"/>
    </edge>
    <edge id=":J11_2" function="internal">
        <lane id=":J11_2_0" index="0" disallow="pedestrian" speed="8.00" length="5.93" shape="-1.60,907.20 -1.05,903.35 -0.00,901.60"/>
    </edge>
    <edge id=":J11_12" function="internal">
        <lane id=":J11_12_0" index="0" disallow="pedestrian" speed="6.51" length="4.28" shape="-3.20,902.88 -4.75,901.95 -7.20,901.60"/>
    </edge>
    <edge id=":J11_13" function="internal">
        <lane id=":J11_13_0" index="0" disallow="pedestrian" speed="8.00" length="8.26" shape="-0.00,901.60 0.60,900.60 3.35,898.95 7.20,898.40"/>
    </edge>
    <edge id=":J11_3" function="internal">
        <lane id=":J11_3_0" index="0" disallow="pedestrian" speed="6.51" length="9.03" shape="7.20,901.60 4.75,901.95 3.00,903.00 1.95,904.75 1.60,907.20"/>
    </edge>
    <edge id=":J11_4" function="internal">
        <lane id=":J11_4_0" index="0" disallow="pedestrian" speed="13.89" length="14.40" shape="7.20,901.60 -7.20,901.60"/>
    </edge>
    <edge id=":J11_5" function="internal">
        <lane id=":J11_5_0" index="0" disallow="pedestrian" speed="8.00" length="14.19" shape="7.20,901.60 3.35,901.05 0.60,899.40 -1.05,896.65 -1.60,892.80"/>
    </edge>
    <edge id=":J11_6" function="internal">
        <lane id=":J11_6_0" index="0" disallow="pedestrian" speed="6.51" length="4.75" shape="1.60,892.80 1.95,895.25 3.00,897.00 3.20,897.12"/>
    </edge>
    <edge id=":J11_7" function="internal">
        <lane id=":J11_7_0" index="0" disallow="pedestrian" speed="13.89" length="14.40" shape="1.60,892.80 1.60,907.20"/>
    </edge>
    <edge id=":J11_8" function="internal">
        <lane id=":J11_8_0" index="0" disallow="pedestrian" speed="8.00" length="5.93" shape="1.60,892.80 1.05,896.65 0.00,898.40"/>
    </edge>
    <edge id=":J11_14" function="internal">
        <lane id=":J11_14_0" index="0" disallow="pedestrian" speed="6.51" length="4.28" shape="3.20,897.12 4.75,898.05 7.20,898.40"/>
    </edge>
    <edge id=":J11_15" function="internal">
        <lane id=":J11_15_0" index="0" disallow="pedestrian" speed="8.00" length="8.26" shape="0.00,898.40 -0.60,899.40 -3.35,901.05 -7.20,901.60"/>
    </edge>
    <edge id=":J11_9" function="internal">
        <lane id=":J11_9_0" index="0" disallow="pedestrian" speed="6.51" length="9.03" shape="-7.20,898.40 -4.75,898.05 -3.00,897.00 -1.95,895.25 -1.60,892.80"/>
    </edge>
    <edge id=":J11_10" function="internal">
        <lane id=":J11_10_0" index="0" disallow="pedestrian" speed="13.89" length="14.40" shape="-7.20,898.40 7.20,898.40"/>
    </edge>
    <edge id=":J11_11" function="internal">
        <lane id=":J11_11_0" index="0" disallow="pedestrian" speed="8.00" length="14.19" shape="-7.20,898.40 -3.35,898.95 -0.60,900.60 1.05,903.35 1.60,907.20"/>
    </edge>
    <edge id=":J11_c0" function="crossing" crossingEdges="E22 E23">
        <lane id=":J11_c0_0" index="0" allow="pedestrian" speed="1.00" length="6.40" width="4.00" shape="3.20,905.20 -3.20,905.20"/>
    </edge>
    <edge id=":J11_c1" function="crossing" crossingEdges="E98 E99">
        <lane id=":J11_c1_0" index="0" allow="pedestrian" speed="1.00" length="6.40" width="4.00" shape="5.20,896.80 5.20,903.20"/>
    </edge>
    <edge id=":J11_c2" function="crossing" crossingEdges="E21 E20">
        <lane id=":J11_c2_0" index="0" allow="pedestrian" speed="1.00" length="6.40" width="4.00" shape="-3.20,894.80 3.20,894.80"/>
    </edge>
    <edge id=":J11_c3" function="crossing" crossingEdges="E793 E792">
        <lane id=":J11_c3_0" index="0" allow="pedestrian" speed="1.00" length="6.40" width="4.00" shape="-5.20,903.20 -5.20,896.80"/>
    </edge>
    <edge id=":J11_w0" function="walkingarea">
        <lane id=":J11_w0_0" index="0" allow="pedestrian" speed="1.00" length="3.30" width="4.00" shape="-7.20,903.20 -7.20,905.20 -5.20,907.20 -3.20,907.20 -3.31,905.98 -3.64,904.98 -4.20,904.20 -4.98,903.64 -5.98,903.31"/>
    </edge>
    <edge id=":J11_w1" function="walkingarea">
        <lane id=":J11_w1_0" index="0" allow="pedestrian" speed="1.00" length="3.30" width="4.00" shape="3.20,907.20 5.20,907.20 7.20,905.20 7.20,903.20 5.98,903.31 4.98,903.64 4.20,904.20 3.64,904.98 3.31,905.98"/>
    </edge>
    <edge id=":J11_w2" function="walkingarea">
        <lane id=":J11_w2_0" index="0" allow="pedestrian" speed="1.00" length="3.30" width="4.00" shape="7.20,896.80 7.20,894.80 5.20,892.80 3.20,892.80 3.31,894.02 3.64,895.02 4.20,895.80 4.98,896.36 5.98,896.69"/>
    </edge>
    <edge id=":J11_w3" function="walkingarea">
        <lane id=":J11_w3_0" index="0" allow="pedestrian" speed="1.00" length="3.30" width="4.00" shape="-3.20,892.80 -5.20,892.80 -7.20,894.80 -7.20,896.80 -5.98,896.69 -4.98,896.36 -4.20,895.80 -3.64,895.02 -3.31,894.02"/>
    </edge>
    <edge id=":J115_c0" function="crossing" crossingEdges="E271 E272">
        <lane id=":J115_c0_0" index="0" allow="pedestrian" speed="1.00" length="6.40" width="4.00" shape="496.80,1702.00 503.20,1702.00"/>
    </edge>
    <edge id=":J115_w0" function="walkingarea">
        <lane id=":J115_w0_0" index="0" allow="pedestrian" speed="1.00" length="2.24" width="4.00" shape="496.80,1704.00 496.80,1700.00 494.80,1700.00"/>
    </edge>
    <edge id=":J115_w1" function="walkingarea">
        <lane id=":J115_w1_0" index="0" allow="pedestrian" speed="1.00" length="2.24" width="4.00" shape="505.20,1700.00 503.20,1700.00 503.20,1704.00"/>
    </edge>
    <edge id=":J116_c0" function="crossing" crossingEdges="E272 E271">
        <lane id=":J116_c0_0" index="0" allow="pedestrian" speed="1.00" length="6.40" width="4.00" shape="503.20,-702.00 496.80,-702.00"/>
    </edge>
    <edge id=":J116_w0" function="walkingarea">
        <lane id=":J116_w0_0" index="0" allow="pedestrian" speed="1.00" length="2.24" width="4.00" shape="503.20,-704.00 503.20,-700.00 505.20,-700.00"/>
    </edge>
    <edge id=":J116_w1" function="walkingarea">
        <lane id=":J116_w1_0" index="0" allow="pedestrian" speed="1.00" length="2.24" width="4.00" shape="494.80,-700.00 496.80,-700.00 496.80,-704.00"/>
    </edge>
    <edge id=":J12_0" function="internal">
        <lane id=":J12_0_0" index="0" disallow="pedestrian" speed="6.87" length="11.34" shape="-1.60,1012.63 -2.28,1009.07 -4.34,1007.74 -7.76,1008.65 -9.20,1009.59"/>
    </edge>
    <edge id=":J12_1" function="internal">
        <lane id=":J12_1_0" index="0" disallow="pedestrian" speed="9.75" length="21.56" shape="-1.60,1012.63 -2.57,1007.81 -5.49,1004.36 -10.35,1002.29 -17.16,1001.60"/>
    </edge>
    <edge id=":J12_2" function="internal">
        <lane id=":J12_2_0" index="0" disallow="pedestrian" speed="13.89" length="19.83" shape="-1.60,1012.63 -1.60,992.80"/>
    </edge>
    <edge id=":J12_3" function="internal">
        <lane id=":J12_3_0" index="0" disallow="pedestrian" speed="9.13" length="9.27" shape="-1.60,1012.63 -1.05,1006.41 0.00,1003.58"/>
    </edge>
    <edge id=":J12_20" function="internal">
        <lane id=":J12_20_0" index="0" disallow="pedestrian" speed="6.87" length="4.01" shape="-9.20,1009.59 -12.56,1011.80"/>
    </edge>
    <edge id=":J12_21" function="internal">
        <lane id=":J12_21_0" index="0" disallow="pedestrian" speed="9.13" length="9.51" shape="0.00,1003.58 0.60,1001.96 3.35,999.29 7.20,998.40"/>
    </edge>
    <edge id=":J12_4" function="internal">
        <lane id=":J12_4_0" index="0" disallow="pedestrian" speed="7.87" length="13.70" shape="7.20,1001.60 4.75,1002.29 3.00,1004.36 1.95,1007.81 1.60,1012.63"/>
    </edge>
    <edge id=":J12_5" function="internal">
        <lane id=":J12_5_0" index="0" disallow="pedestrian" speed="13.89" length="22.89" shape="7.20,1001.60 1.00,1002.33 -3.47,1004.40 -7.55,1007.61 -12.56,1011.80"/>
    </edge>
    <edge id=":J12_6" function="internal">
        <lane id=":J12_6_0" index="0" disallow="pedestrian" speed="13.89" length="24.36" shape="7.20,1001.60 -17.16,1001.60"/>
    </edge>
    <edge id=":J12_7" function="internal">
        <lane id=":J12_7_0" index="0" disallow="pedestrian" speed="8.00" length="14.19" shape="7.20,1001.60 3.35,1001.05 0.60,999.40 -1.05,996.65 -1.60,992.80"/>
    </edge>
    <edge id=":J12_8" function="internal">
        <lane id=":J12_8_0" index="0" disallow="pedestrian" speed="6.51" length="4.75" shape="1.60,992.80 1.95,995.25 3.00,997.00 3.20,997.12"/>
    </edge>
    <edge id=":J12_9" function="internal">
        <lane id=":J12_9_0" index="0" disallow="pedestrian" speed="13.89" length="19.83" shape="1.60,992.80 1.60,1012.63"/>
    </edge>
    <edge id=":J12_10" function="internal">
        <lane id=":J12_10_0" index="0" disallow="pedestrian" speed="13.89" length="5.69" shape="1.60,992.80 0.72,996.98 0.00,998.21"/>
    </edge>
    <edge id=":J12_11" function="internal">
        <lane id=":J12_11_0" index="0" disallow="pedestrian" speed="10.01" length="4.57" shape="1.60,992.80 0.43,996.65 -0.00,996.98"/>
    </edge>
    <edge id=":J12_22" function="internal">
        <lane id=":J12_22_0" index="0" disallow="pedestrian" speed="6.51" length="4.28" shape="3.20,997.12 4.75,998.05 7.20,998.40"/>
    </edge>
    <edge id=":J12_23" function="internal">
        <lane id=":J12_23_0" index="0" disallow="pedestrian" speed="13.89" length="18.65" shape="0.00,998.21 -1.94,1001.54 -6.36,1006.48 -12.56,1011.80"/>
    </edge>
    <edge id=":J12_24" function="internal">
        <lane id=":J12_24_0" index="0" disallow="pedestrian" speed="10.01" length="18.23" shape="-0.00,996.98 -3.09,999.40 -8.95,1001.05 -17.16,1001.60"/>
    </edge>
    <edge id=":J12_12" function="internal">
        <lane id=":J12_12_0" index="0" disallow="pedestrian" speed="8.90" length="17.83" shape="-17.16,998.40 -10.35,998.05 -5.49,997.00 -2.57,995.25 -1.60,992.80"/>
    </edge>
    <edge id=":J12_13" function="internal">
        <lane id=":J12_13_0" index="0" disallow="pedestrian" speed="13.89" length="24.36" shape="-17.16,998.40 7.20,998.40"/>
    </edge>
    <edge id=":J12_14" function="internal">
        <lane id=":J12_14_0" index="0" disallow="pedestrian" speed="10.80" length="26.70" shape="-17.16,998.40 -8.95,999.29 -3.09,1001.96 0.43,1006.41 1.60,1012.63"/>
    </edge>
    <edge id=":J12_15" function="internal">
        <lane id=":J12_15_0" index="0" disallow="pedestrian" speed="7.17" length="18.98" shape="-17.16,998.40 -12.24,999.81 -9.58,1003.29 -9.55,1007.66 -12.56,1011.80"/>
    </edge>
    <edge id=":J12_16" function="internal">
        <lane id=":J12_16_0" index="0" disallow="pedestrian" speed="6.40" length="14.76" shape="-14.52,1009.27 -10.99,1005.91 -10.25,1003.52 -12.31,1002.08 -17.16,1001.60"/>
    </edge>
    <edge id=":J12_17" function="internal">
        <lane id=":J12_17_0" index="0" disallow="pedestrian" speed="13.66" length="21.46" shape="-14.52,1009.27 -8.87,1004.47 -4.83,1000.13 -2.41,996.24 -1.60,992.80"/>
    </edge>
    <edge id=":J12_18" function="internal">
        <lane id=":J12_18_0" index="0" disallow="pedestrian" speed="13.89" length="24.90" shape="-14.52,1009.27 -9.21,1004.98 -4.45,1001.53 0.70,999.24 7.20,998.40"/>
    </edge>
    <edge id=":J12_19" function="internal">
        <lane id=":J12_19_0" index="0" disallow="pedestrian" speed="8.01" length="21.39" shape="-14.52,1009.27 -8.96,1006.14 -3.75,1005.41 0.10,1007.46 1.60,1012.63"/>
    </edge>
    <edge id=":J12_c0" function="crossing" crossingEdges="E318 E317">
        <lane id=":J12_c0_0" index="0" allow="pedestrian" speed="1.00" length="6.40" width="4.00" shape="3.20,1010.63 -3.20,1010.63"/>
    </edge>
    <edge id=":J12_c1" function="crossing" crossingEdges="E26 E27">
        <lane id=":J12_c1_0" index="0" allow="pedestrian" speed="1.00" length="6.40" width="4.00" shape="5.20,996.80 5.20,1003.20"/>
    </edge>
    <edge id=":J12_c2" function="crossing" crossingEdges="E23 E22">
        <lane id=":J12_c2_0" index="0" allow="pedestrian" speed="1.00" length="6.40" width="4.00" shape="-3.20,994.80 3.20,994.80"/>
    </edge>
    <edge id=":J12_c3" function="crossing" crossingEdges="E24 E25">
        <lane id=":J12_c3_0" index="0" allow="pedestrian" speed="1.00" length="6.40" width="4.00" shape="-10.00,1011.83 -13.93,1006.78"/>
    </edge>
    <edge id=":J12_w0" function="walkingarea">
        <lane id=":J12_w0_0" index="0" allow="pedestrian" speed="1.00" length="5.42" width="4.00" shape="-11.58,1013.06 -10.35,1014.64 -5.20,1012.63 -3.20,1012.63 -3.43,1010.95 -4.13,1009.97 -5.29,1009.69 -6.92,1010.12 -9.02,1011.24"/>
    </edge>
    <edge id=":J12_w1" function="walkingarea">
        <lane id=":J12_w1_0" index="0" allow="pedestrian" speed="1.00" length="6.36" width="4.00" shape="3.20,1012.63 5.20,1012.63 7.20,1005.20 7.20,1003.20 5.98,1003.46 4.98,1004.25 4.20,1005.56 3.64,1007.39 3.31,1009.75"/>
    </edge>
    <edge id=":J12_w2" function="walkingarea">
        <lane id=":J12_w2_0" index="0" allow="pedestrian" speed="1.00" length="3.30" width="4.00" shape="7.20,996.80 7.20,994.80 5.20,992.80 3.20,992.80 3.31,994.02 3.64,995.02 4.20,995.80 4.98,996.36 5.98,996.69"/>
    </edge>
    <edge id=":J12_w3" function="walkingarea">
        <lane id=":J12_w3_0" index="0" allow="pedestrian" speed="1.00" length="9.84" width="4.00" shape="-3.20,992.80 -5.20,992.80 -17.16,994.80 -17.16,996.80 -12.89,996.69 -9.40,996.36 -6.69,995.80 -4.75,995.02 -3.59,994.02"/>
    </edge>
    <edge id=":J12_w4" function="walkingarea">
        <lane id=":J12_w4_0" index="0" allow="pedestrian" speed="1.00" length="3.19" width="4.00" shape="-17.16,1003.20 -17.16,1005.20 -16.73,1006.43 -15.51,1008.01 -13.84,1006.54 -12.94,1005.34 -12.83,1004.40 -13.49,1003.73 -14.94,1003.33"/>
    </edge>
    <edge id=":J121_0" function="internal">
        <lane id=":J121_0_0" index="0" disallow="pedestrian" speed="13.89" length="0.10" shape="500.00,-498.40 500.00,-498.40"/>
    </edge>
    <edge id=":J121_1" function="internal">
        <lane id=":J121_1_0" index="0" disallow="pedestrian" speed="13.89" length="0.10" shape="500.00,-501.60 500.00,-501.60"/>
    </edge>
    <edge id=":J121_c0" function="crossing" crossingEdges="E329 E330">
        <lane id=":J121_c0_0" index="0" allow="pedestrian" speed="1.00" length="6.40" width="4.00" shape="498.00,-503.20 498.00,-496.80"/>
    </edge>
    <edge id=":J121_c1" function="crossing" crossingEdges="E328 E327">
        <lane id=":J121_c1_0" index="0" allow="pedestrian" speed="1.00" length="6.40" width="4.00" shape="502.00,-496.80 502.00,-503.20"/>
    </edge>
    <edge id=":J121_w0" function="walkingarea">